
[General]
description = "Verification Test: WriteOnly"
network = progetto.DatabaseNetwork
seed-set = 1
result-dir = results_verify

[Config WriteOnly]

*.numUsers = 10
*.numTables = 5
*.user[*].readProbability = 0
*.user[*].tableDistribution = "uniform"
*.user[*].lambda = 1.0
*.user[*].serviceTime = 0.1s

sim-time-limit = 50s
warmup-period = 0s
repeat = 1
