
[General]
description = "Verification Test: ZeroUsers"
network = progetto.DatabaseNetwork
seed-set = 1
result-dir = results_verify

[Config ZeroUsers]

*.numUsers = 0
*.numTables = 20

sim-time-limit = 100s
warmup-period = 0s
repeat = 1
