[General]
network = progetto.DatabaseNetwork
sim-time-limit = 10s
*.numUsers = 10
*.numTables = 5
*.user[*].readProbability = 0.5
*.user[*].tableDistribution = "uniform"
*.user[*].serviceTime = 0.1s
*.user[*].lambda = 1.0

[Config Test]
