[General]
description = "Continuity Test - Configuration B (N=101)"
network = progetto.DatabaseNetwork
seed-set = 1
result-dir = results_continuity

[Config ContinuityB]
*.numUsers = 101
*.numTables = 20
*.user[*].lambda = 1.0
*.user[*].readProbability = 0.5
*.user[*].serviceTime = 0.1s
*.user[*].tableDistribution = "uniform"
sim-time-limit = 1000s
warmup-period = 500s
repeat = 25
